Version 4
SHEET 1 1636 680
WIRE -8288 -5136 -8528 -5136
WIRE -8288 -5088 -8288 -5136
WIRE -8528 -5056 -8528 -5136
WIRE -7616 -4976 -7696 -4976
WIRE -8288 -4960 -8288 -5008
WIRE -7696 -4928 -7696 -4976
WIRE -7616 -4928 -7616 -4976
WIRE -6736 -4896 -6816 -4896
WIRE -6736 -4864 -6736 -4896
WIRE -8672 -4848 -8720 -4848
WIRE -8528 -4848 -8528 -4976
WIRE -8528 -4848 -8608 -4848
WIRE -8080 -4848 -8528 -4848
WIRE -7136 -4816 -7264 -4816
WIRE -8080 -4800 -8080 -4848
WIRE -7840 -4800 -8080 -4800
WIRE -7696 -4800 -7696 -4864
WIRE -7696 -4800 -7760 -4800
WIRE -7312 -4800 -7696 -4800
WIRE -8528 -4784 -8528 -4848
WIRE -7696 -4752 -7696 -4800
WIRE -7264 -4752 -7264 -4816
WIRE -7312 -4736 -7312 -4800
WIRE -7136 -4720 -7136 -4816
WIRE -7072 -4720 -7136 -4720
WIRE -6816 -4720 -6816 -4896
WIRE -6816 -4720 -6944 -4720
WIRE -7072 -4688 -7136 -4688
WIRE -6832 -4688 -6944 -4688
WIRE -8528 -4672 -8528 -4704
WIRE -7312 -4672 -7312 -4688
WIRE -7264 -4672 -7312 -4672
WIRE -6832 -4672 -6832 -4688
WIRE -7312 -4656 -7312 -4672
WIRE -7072 -4656 -7120 -4656
WIRE -6896 -4656 -6944 -4656
WIRE -9440 -4640 -9440 -4704
WIRE -7840 -4640 -8080 -4640
WIRE -7696 -4640 -7696 -4688
WIRE -7696 -4640 -7760 -4640
WIRE -7456 -4640 -7696 -4640
WIRE -6896 -4640 -6896 -4656
WIRE -6256 -4640 -6896 -4640
WIRE -7136 -4624 -7136 -4688
WIRE -7136 -4624 -7264 -4624
WIRE -7072 -4624 -7088 -4624
WIRE -6608 -4624 -6944 -4624
WIRE -9120 -4592 -9200 -4592
WIRE -8720 -4592 -8720 -4848
WIRE -8720 -4592 -8768 -4592
WIRE -7696 -4592 -7696 -4640
WIRE -7264 -4560 -7264 -4624
WIRE -6608 -4560 -6608 -4624
WIRE -9120 -4544 -9200 -4544
WIRE -7456 -4544 -7456 -4640
WIRE -7312 -4544 -7456 -4544
WIRE -9120 -4496 -9200 -4496
WIRE -8720 -4496 -8768 -4496
WIRE -7696 -4480 -7696 -4528
WIRE -7088 -4448 -7088 -4624
WIRE -9440 -4416 -9440 -4448
WIRE -7312 -4416 -7312 -4496
WIRE -7296 -4416 -7312 -4416
WIRE -7264 -4416 -7264 -4480
WIRE -7264 -4416 -7296 -4416
WIRE -8272 -4400 -8464 -4400
WIRE -7296 -4400 -7296 -4416
WIRE -8272 -4352 -8272 -4400
WIRE -7120 -4304 -7120 -4656
WIRE -7088 -4304 -7088 -4368
WIRE -7088 -4304 -7120 -4304
WIRE -8464 -4240 -8464 -4400
WIRE -8272 -4224 -8272 -4272
WIRE -9440 -4128 -9440 -4272
WIRE -9232 -4128 -9440 -4128
WIRE -8720 -4112 -8720 -4496
WIRE -8656 -4112 -8720 -4112
WIRE -8464 -4112 -8464 -4160
WIRE -8464 -4112 -8592 -4112
WIRE -8080 -4112 -8080 -4640
WIRE -8080 -4112 -8464 -4112
WIRE -8464 -4048 -8464 -4112
WIRE -9712 -4016 -10096 -4016
WIRE -10096 -3920 -10096 -4016
WIRE -8464 -3920 -8464 -3968
WIRE -9712 -3888 -9712 -4016
WIRE -9680 -3888 -9712 -3888
WIRE -9232 -3888 -9232 -4128
WIRE -9232 -3888 -9440 -3888
WIRE -9680 -3856 -9712 -3856
WIRE -9424 -3856 -9440 -3856
WIRE -10096 -3744 -10096 -3840
WIRE -9712 -3744 -9712 -3856
WIRE -9712 -3744 -10096 -3744
WIRE -10096 -3712 -10096 -3744
WIRE -9424 -3696 -9424 -3856
WIRE -8896 -3568 -8896 -3600
FLAG -8896 -3568 0
FLAG -8288 -4960 0
FLAG -8528 -4672 0
FLAG -8272 -4224 0
FLAG -8464 -3920 0
FLAG -10096 -3712 0
FLAG -9424 -3696 0
FLAG -7616 -4928 0
FLAG -7696 -4480 0
FLAG -7312 -4656 0
FLAG -6832 -4672 0
FLAG -7296 -4400 0
FLAG -6736 -4784 0
FLAG -6608 -4480 0
SYMBOL voltage -8896 -3696 R0
WINDOW 3 24 96 Invisible 2
WINDOW 123 45 79 Left 2
WINDOW 0 49 52 Left 2
WINDOW 39 0 0 Left 2
SYMATTR Value SINE(0 10 1k)
SYMATTR Value2 AC 'Input_SP_Amplitude' 0
SYMATTR InstName V1
SYMBOL back_volume -9440 -4784 R0
SYMATTR InstName BV
SYMBOL StraightSoundChannel -9440 -4352 R0
WINDOW 0 118 -7 Bottom 2
SYMATTR InstName SoundPort
SYMATTR SpiceLine Radius=SoundPort_Radius Length=SoundPort_Thickness
SYMBOL Inlet -9440 -4288 R0
SYMATTR SpiceLine Radius=SoundPort_Radius
SYMATTR InstName Inlet
SYMBOL ICA63_el_only_Flicker -8928 -4544 R0
SYMATTR InstName ASIC
SYMBOL E2371 -9408 -4544 R0
SYMATTR InstName MEMS
SYMBOL voltage -8288 -5104 R0
WINDOW 123 0 0 Left 0
WINDOW 39 0 0 Left 0
SYMATTR InstName V3
SYMATTR Value 2.5
SYMBOL res -8544 -4800 R0
SYMATTR InstName R1
SYMATTR Value 10k
SYMBOL cap -8608 -4864 R90
WINDOW 0 0 32 VBottom 2
WINDOW 3 32 32 VTop 2
SYMATTR InstName C1
SYMATTR Value 2.2µ
SYMBOL voltage -8272 -4368 R0
WINDOW 123 0 0 Left 0
WINDOW 39 0 0 Left 0
SYMATTR InstName V2
SYMATTR Value 2.5
SYMBOL res -8480 -4064 R0
SYMATTR InstName R3
SYMATTR Value 10k
SYMBOL res -8480 -4256 R0
SYMATTR InstName R4
SYMATTR Value 10k
SYMBOL cap -8592 -4128 R90
WINDOW 0 0 32 VBottom 2
WINDOW 3 32 32 VTop 2
SYMATTR InstName C2
SYMATTR Value 2.2µ
SYMBOL voltage -10096 -3936 R0
WINDOW 3 24 96 Invisible 2
WINDOW 123 45 79 Left 2
WINDOW 0 49 52 Left 2
WINDOW 39 0 0 Left 2
SYMATTR Value PWL file=C:\Users\GietlerHaral\Documents\MicrophoneBoard\MicrophoneBoardSim\matlab_modulation\cpfsk_mod_pwm_pwl_data.txt
SYMATTR Value2 AC 1 0
SYMATTR InstName V6
SYMBOL UTTransmitter -9568 -3872 R0
SYMATTR InstName X1
SYMBOL res -7744 -4656 R90
WINDOW 0 0 56 VBottom 2
WINDOW 3 32 56 VTop 2
SYMATTR InstName R9
SYMATTR Value 3.9k
SYMBOL res -7744 -4816 R90
WINDOW 0 0 56 VBottom 2
WINDOW 3 32 56 VTop 2
SYMATTR InstName R10
SYMATTR Value 3.9k
SYMBOL cap -7712 -4752 R0
SYMATTR InstName C4
SYMATTR Value 470p
SYMBOL res -8544 -5072 R0
SYMATTR InstName R2
SYMATTR Value 10k
SYMBOL cap -7712 -4928 R0
SYMATTR InstName C3
SYMATTR Value 100p
SYMBOL cap -7712 -4592 R0
SYMATTR InstName C5
SYMATTR Value 100p
SYMBOL e -7264 -4768 R0
SYMATTR InstName E1
SYMATTR Value 1
SYMBOL AD623 -7008 -4672 R0
SYMATTR InstName U1
SYMBOL e -7264 -4576 R0
SYMATTR InstName E2
SYMATTR Value 1
SYMBOL voltage -6608 -4576 R0
WINDOW 123 0 0 Left 0
WINDOW 39 0 0 Left 0
SYMATTR InstName V4
SYMATTR Value 1.25
SYMBOL voltage -6736 -4880 R0
WINDOW 123 0 0 Left 0
WINDOW 39 0 0 Left 0
SYMATTR InstName V5
SYMATTR Value 3.3
SYMBOL res -7104 -4464 R0
SYMATTR InstName R5
SYMATTR Value 10k
TEXT -10440 -4440 Left 4 !.options meascplxfmt=bode cshunt = 1e-16\n;.ac dec 100 100 100k\n;.noise V(nout) V1 dec 100 10 30k\n;.noise V(Out) V1 dec 100 10 30k\n.tran 0 16m 1m 100u\n.temp 27\n;.op\n;.step param Vmic 4 14 0.5
TEXT -10440 -4744 Left 2 !.param p=101325                          \n.param T=273.15+20                   \n.param Input_SP_Amplitude=1 \n.param Vmic = 6.6\n.param Ubias= Vmic-0.9\n.param transient_pressure=sqrt(2)
TEXT -10432 -4784 Left 3 ;Operational Conditions
TEXT -10440 -4480 Left 3 ;Simulation Settings (AC or Noise)
TEXT -10440 -4856 Left 3 ;Simulation Log Print Outs
TEXT -9080 -3664 Left 4 ;Input\nSource
TEXT -9592 -4832 Left 2 !.lib package_lib\\BD507_BA503.lib
TEXT -9152 -4344 Left 2 !.param SoundPort_Thickness=0.25e-3\n.param SoundPort_Radius=0.3e-3
TEXT -9152 -4376 Left 3 ;Sound Port
TEXT -9184 -5072 Left 3 ;Chose the correct capacitance Lib !\nor set Canalyt=1
TEXT -9192 -4984 Left 2 !.lib capacitance_lib\\Cap_E2370P.lib\n.param Canalyt=0
TEXT -10424 -4824 Left 2 !.inc measurements_SDM.txt
